LAMMPS (15 Sep 2022)
# 3d WCA system, random initial configuration

#variable density equal 0.6
variable initial_temperature equal 3.0
variable final_temperature equal 0.1
variable dt equal 0.005
variable tau equal 100*0.005
variable thermo_time equal 50000*0.005
variable equil_steps equal 50000
variable run_steps equal 100000

units           lj
atom_style      atomic
dimension       3                # 修改1：将维度改为3

lattice         fcc 0.8
Lattice spacing in x,y,z = 1.7099759 1.7099759 1.7099759
region          box block 0 8 0 8 0 8    # 修改3：调整区域大小为 8x8x8

# number of atom types
create_box      1 box
Created orthogonal box = (0 0 0) to (13.679808 13.679808 13.679808)
create_atoms    1 box
Created 2048 atoms
mass 1 1.0

velocity all create 3 12345

pair_style      lj/cut 1.0
#type_1 type_2 epsilon sigma cutoff
pair_coeff      1 1 10.0 0.89089871814 1.0
pair_modify shift yes

timestep 0.005
thermo 250

fix 1 all nvt temp 3 3 0.5
run 50000
Generated 0 of 0 mixed pair_coeff terms from geometric mixing rule
Step          Temp          E_pair         E_mol          TotEng         Press
0   3              0              0              4.4978027      2.3988281
Averages over the last 101 of 201 rows, steps 25000 to 50000:
Temp E_pair E_mol TotEng Press
3.00226 0.951917 0 5.45312 12.2026
Loop time of 15.2401 on 1 procs for 50000 steps with 2048 atoms

unfix 1
dump           1 all atom 100000 3dWCA_T0.1_d0.8_N100000.lammpstrj
dump           2 all dcd 250 3dWCA_T0.1_d0.8_N100000.dcd
fix 1 all nvt temp 3 0.1 0.5

run 100000
Generated 0 of 0 mixed pair_coeff terms from geometric mixing rule
Step          Temp          E_pair         E_mol          TotEng         Press
50000   2.998976       0.93588699     0              5.4321545      12.048902
Averages over the last 201 of 401 rows, steps 100000 to 150000:
Temp E_pair E_mol TotEng Press
0.825526 0.210485 0 1.44817 3.8852
Loop time of 24.2679 on 1 procs for 100000 steps with 2048 atoms
